Version 4
SHEET 1 1244 680
WIRE 336 64 304 64
WIRE 560 64 528 64
WIRE 304 176 304 64
WIRE 400 176 304 176
WIRE 560 176 560 64
WIRE 560 176 480 176
WIRE 304 224 304 176
FLAG 304 224 0
SYMBOL voltage 496 176 R90
WINDOW 123 0 0 Left 2
WINDOW 39 0 0 Left 2
SYMATTR InstName Vext
SYMATTR Value 0.5V
SYMBOL pvcell 432 64 R0
SYMATTR InstName X1
TEXT -312 -80 Left 2 ;Values from V. Quaschning Understanding Renewable Energy Systems (2005), p. 132-136
TEXT -312 -112 Left 2 ;(Non-Extended) Model of a Single PV Cell (Kyocera LA441J59)
TEXT -312 -56 Left 1 ;(R. Becker, 2013-10-29)
TEXT -248 104 Left 2 !.dc Vext -17V 1V 0.01V
TEXT -248 136 Left 2 !.step param E list 1000 800 600 400 200
