Version 4
SHEET 1 1120 680
WIRE 0 160 -32 160
WIRE 224 160 192 160
WIRE 256 160 224 160
WIRE 480 160 448 160
WIRE 512 160 480 160
WIRE 768 160 704 160
WIRE 864 160 768 160
WIRE 768 176 768 160
WIRE -32 240 -32 160
WIRE 64 240 -32 240
WIRE 224 240 224 160
WIRE 224 240 128 240
WIRE -32 272 -32 240
WIRE 768 272 768 256
FLAG -32 272 0
FLAG 768 272 0
FLAG 224 160 p1
FLAG 480 160 p2
SYMBOL PVcellExt 96 160 R0
WINDOW 39 3 0 Bottom 2
SYMATTR SpiceLine E={E0}
SYMATTR InstName PV1
SYMBOL PVcellExt 352 160 R0
WINDOW 39 3 0 Bottom 2
SYMATTR SpiceLine E={E}
SYMATTR InstName PV2
SYMBOL PVcellExt 608 160 R0
WINDOW 39 3 0 Bottom 2
SYMATTR SpiceLine E={E}
SYMATTR InstName PV3
SYMBOL diode 64 256 R270
WINDOW 0 32 32 VTop 2
WINDOW 3 0 32 VBottom 2
SYMATTR InstName D1
SYMBOL res 752 160 R0
SYMATTR InstName R1
SYMATTR Value {Rext}
TEXT -432 216 Left 2 !.param E0 1000
TEXT -40 -32 Left 2 ;Model of a PV Module of Three PV Cells \n(Kyocera LA441J59, Subcircuit PVcell.asc, PVcell.asy)\nValues from V. Quaschning: Understanding Renewable Energy Systems (2005), p. 132-135
TEXT -40 48 Left 1 ;(R. Becker, 2014-10-27)
TEXT -432 248 Left 2 !.param E 1000
TEXT -432 280 Left 2 !.step param Rext 1u 10 0.5
TEXT -434 300 Left 2 !.tran 1
