Version 4
SHEET 1 2048 1588
WIRE 1440 32 1376 32
WIRE 1952 32 1440 32
WIRE 1440 64 1440 32
WIRE 1440 176 1440 144
WIRE 1952 176 1440 176
WIRE 1440 208 1440 176
WIRE -528 304 -576 304
WIRE -512 304 -528 304
WIRE -304 304 -320 304
WIRE -288 304 -304 304
WIRE -80 304 -96 304
WIRE -64 304 -80 304
WIRE 144 304 128 304
WIRE 160 304 144 304
WIRE 368 304 352 304
WIRE 384 304 368 304
WIRE 592 304 576 304
WIRE 608 304 592 304
WIRE 832 304 800 304
WIRE 1040 304 1024 304
WIRE 1056 304 1040 304
WIRE 1264 304 1248 304
WIRE 1280 304 1264 304
WIRE 1488 304 1472 304
WIRE 1504 304 1488 304
WIRE 1952 304 1696 304
WIRE -576 368 -576 304
WIRE 1952 368 -576 368
WIRE -512 496 -576 496
WIRE -288 496 -320 496
WIRE -64 496 -96 496
WIRE 160 496 128 496
WIRE 384 496 352 496
WIRE 608 496 576 496
WIRE 832 496 800 496
WIRE 1056 496 1024 496
WIRE 1280 496 1248 496
WIRE 1504 496 1472 496
WIRE 1952 496 1696 496
WIRE -576 560 -576 496
WIRE 1952 560 -576 560
WIRE -512 688 -576 688
WIRE -288 688 -320 688
WIRE -64 688 -96 688
WIRE 160 688 128 688
WIRE 384 688 352 688
WIRE 608 688 576 688
WIRE 848 688 800 688
WIRE 1056 688 1040 688
WIRE 1280 688 1248 688
WIRE 1504 688 1472 688
WIRE 1952 688 1696 688
WIRE -576 752 -576 688
WIRE 1952 752 -576 752
WIRE -512 880 -576 880
WIRE -288 880 -320 880
WIRE -64 880 -96 880
WIRE 160 880 128 880
WIRE 384 880 352 880
WIRE 608 880 576 880
WIRE 832 880 800 880
WIRE 1056 880 1024 880
WIRE 1280 880 1248 880
WIRE 1504 880 1472 880
WIRE 1952 880 1696 880
WIRE -576 944 -576 880
WIRE 1952 944 -576 944
FLAG 1440 208 0
FLAG -528 304 p0
FLAG -304 304 p1
FLAG -80 304 p2
FLAG 144 304 p3
FLAG 368 304 p4
FLAG 592 304 p5
FLAG 832 304 p6
FLAG 1040 304 p7
FLAG 1264 304 p8
FLAG 1488 304 p9
SYMBOL PVcell -416 304 R0
WINDOW 39 0 -2 Bottom 2
SYMATTR SpiceLine E={E}
SYMATTR InstName PV1
SYMATTR SpiceModel ""
SYMBOL voltage 1440 48 R0
WINDOW 123 0 0 Left 2
WINDOW 39 0 0 Left 2
SYMATTR InstName Vext
SYMATTR Value 0.5V
SYMBOL PVcell -192 304 R0
WINDOW 39 0 -2 Bottom 2
SYMATTR SpiceLine E={E}
SYMATTR InstName PV2
SYMATTR SpiceModel ""
SYMBOL PVcell 32 304 R0
WINDOW 39 0 -2 Bottom 2
SYMATTR SpiceLine E={E}
SYMATTR InstName PV3
SYMATTR SpiceModel ""
SYMBOL PVcell 256 304 R0
WINDOW 39 0 -2 Bottom 2
SYMATTR SpiceLine E={E}
SYMATTR InstName PV4
SYMATTR SpiceModel ""
SYMBOL PVcell 480 304 R0
WINDOW 39 0 -2 Bottom 2
SYMATTR SpiceLine E={E}
SYMATTR InstName PV5
SYMATTR SpiceModel ""
SYMBOL PVcell 704 304 R0
WINDOW 39 0 -2 Bottom 2
SYMATTR SpiceLine E={E}
SYMATTR InstName PV6
SYMATTR SpiceModel ""
SYMBOL PVcell 928 304 R0
WINDOW 39 0 -2 Bottom 2
SYMATTR SpiceLine E={E}
SYMATTR InstName PV7
SYMATTR SpiceModel ""
SYMBOL PVcell 1152 304 R0
WINDOW 39 0 -2 Bottom 2
SYMATTR SpiceLine E={E0}
SYMATTR InstName PV8
SYMATTR SpiceModel ""
SYMBOL PVcell 1376 304 R0
WINDOW 39 0 -2 Bottom 2
SYMATTR SpiceLine E={E}
SYMATTR InstName PV9
SYMATTR SpiceModel ""
SYMBOL PVcell 1600 304 R0
WINDOW 39 0 -2 Bottom 2
SYMATTR SpiceLine E={E}
SYMATTR InstName PV10
SYMATTR SpiceModel ""
SYMBOL PVcell -416 496 R0
WINDOW 39 0 -2 Bottom 2
SYMATTR SpiceLine E={E}
SYMATTR InstName PV11
SYMATTR SpiceModel ""
SYMBOL PVcell -192 496 R0
WINDOW 39 0 -2 Bottom 2
SYMATTR SpiceLine E={E}
SYMATTR InstName PV12
SYMATTR SpiceModel ""
SYMBOL PVcell 32 496 R0
WINDOW 39 0 -2 Bottom 2
SYMATTR SpiceLine E={E}
SYMATTR InstName PV13
SYMATTR SpiceModel ""
SYMBOL PVcell 256 496 R0
WINDOW 39 0 -2 Bottom 2
SYMATTR SpiceLine E={E}
SYMATTR InstName PV14
SYMATTR SpiceModel ""
SYMBOL PVcell 480 496 R0
WINDOW 39 0 -2 Bottom 2
SYMATTR SpiceLine E={E}
SYMATTR InstName PV15
SYMATTR SpiceModel ""
SYMBOL PVcell 704 496 R0
WINDOW 39 0 -2 Bottom 2
SYMATTR SpiceLine E={E}
SYMATTR InstName PV16
SYMATTR SpiceModel ""
SYMBOL PVcell 928 496 R0
WINDOW 39 0 -2 Bottom 2
SYMATTR SpiceLine E={E}
SYMATTR InstName PV17
SYMATTR SpiceModel ""
SYMBOL PVcell 1152 496 R0
WINDOW 39 0 -2 Bottom 2
SYMATTR SpiceLine E={E}
SYMATTR InstName PV18
SYMATTR SpiceModel ""
SYMBOL PVcell 1376 496 R0
WINDOW 39 0 -2 Bottom 2
SYMATTR SpiceLine E={E}
SYMATTR InstName PV19
SYMATTR SpiceModel ""
SYMBOL PVcell 1600 496 R0
WINDOW 39 0 -2 Bottom 2
SYMATTR SpiceLine E={E}
SYMATTR InstName PV20
SYMATTR SpiceModel ""
SYMBOL PVcell -416 688 R0
WINDOW 39 0 -2 Bottom 2
SYMATTR SpiceLine E={E}
SYMATTR InstName PV21
SYMATTR SpiceModel ""
SYMBOL PVcell -192 688 R0
WINDOW 39 0 -2 Bottom 2
SYMATTR SpiceLine E={E}
SYMATTR InstName PV22
SYMATTR SpiceModel ""
SYMBOL PVcell 32 688 R0
WINDOW 39 0 -2 Bottom 2
SYMATTR SpiceLine E={E}
SYMATTR InstName PV23
SYMATTR SpiceModel ""
SYMBOL PVcell 256 688 R0
WINDOW 39 0 -2 Bottom 2
SYMATTR SpiceLine E={E}
SYMATTR InstName PV24
SYMATTR SpiceModel ""
SYMBOL PVcell 480 688 R0
WINDOW 39 0 -2 Bottom 2
SYMATTR SpiceLine E={E}
SYMATTR InstName PV25
SYMATTR SpiceModel ""
SYMBOL PVcell 704 688 R0
WINDOW 39 0 -2 Bottom 2
SYMATTR SpiceLine E={E}
SYMATTR InstName PV26
SYMATTR SpiceModel ""
SYMBOL PVcell 944 688 R0
WINDOW 39 0 -2 Bottom 2
SYMATTR SpiceLine E={E}
SYMATTR InstName PV27
SYMATTR SpiceModel ""
SYMBOL PVcell 1152 688 R0
WINDOW 39 0 -2 Bottom 2
SYMATTR SpiceLine E={E}
SYMATTR InstName PV28
SYMATTR SpiceModel ""
SYMBOL PVcell 1376 688 R0
WINDOW 39 0 -2 Bottom 2
SYMATTR SpiceLine E={E}
SYMATTR InstName PV29
SYMATTR SpiceModel ""
SYMBOL PVcell 1600 688 R0
WINDOW 39 0 -2 Bottom 2
SYMATTR SpiceLine E={E}
SYMATTR InstName PV30
SYMATTR SpiceModel ""
SYMBOL PVcell -416 880 R0
WINDOW 39 0 -2 Bottom 2
SYMATTR SpiceLine E={E}
SYMATTR InstName PV31
SYMATTR SpiceModel ""
SYMBOL PVcell -192 880 R0
WINDOW 39 0 -2 Bottom 2
SYMATTR SpiceLine E={E}
SYMATTR InstName PV32
SYMATTR SpiceModel ""
SYMBOL PVcell 32 880 R0
WINDOW 39 0 -2 Bottom 2
SYMATTR SpiceLine E={E}
SYMATTR InstName PV33
SYMATTR SpiceModel ""
SYMBOL PVcell 256 880 R0
WINDOW 39 0 -2 Bottom 2
SYMATTR SpiceLine E={E}
SYMATTR InstName PV34
SYMATTR SpiceModel ""
SYMBOL PVcell 480 880 R0
WINDOW 39 0 -2 Bottom 2
SYMATTR SpiceLine E={E}
SYMATTR InstName PV35
SYMATTR SpiceModel ""
SYMBOL PVcell 704 880 R0
WINDOW 39 0 -2 Bottom 2
SYMATTR SpiceLine E={E}
SYMATTR InstName PV36
SYMATTR SpiceModel ""
SYMBOL PVcell 928 880 R0
WINDOW 39 0 -2 Bottom 2
SYMATTR SpiceLine E={E}
SYMATTR InstName PV37
SYMATTR SpiceModel ""
SYMBOL PVcell 1152 880 R0
WINDOW 39 0 -2 Bottom 2
SYMATTR SpiceLine E={E}
SYMATTR InstName PV38
SYMATTR SpiceModel ""
SYMBOL PVcell 1376 880 R0
WINDOW 39 0 -2 Bottom 2
SYMATTR SpiceLine E={E}
SYMATTR InstName PV39
SYMATTR SpiceModel ""
SYMBOL PVcell 1600 880 R0
WINDOW 39 0 -2 Bottom 2
SYMATTR SpiceLine E={E}
SYMATTR InstName PV40
SYMATTR SpiceModel ""
TEXT 648 64 Left 2 !.dc Vext 0V 21V 0.01V
TEXT 648 128 Left 2 !.step param E0 list 200 1000
TEXT -536 64 Left 2 ;Model of a PV Module of 36 PV Cells \n(Kyocera LA441J59, Subcircuit PVcell.asc, PVcell.asy)\nValues from V. Quaschning: Understanding Renewable Energy Systems (2005), p. 132-135
TEXT -536 144 Left 1 ;(R. Becker, 2013-10-26)
TEXT 648 96 Left 2 !.param E 1000
