Version 4
SHEET 1 1120 680
WIRE 0 160 -32 160
WIRE 240 160 192 160
WIRE 256 160 240 160
WIRE 464 160 448 160
WIRE 512 160 464 160
WIRE 768 160 704 160
WIRE 864 160 768 160
WIRE 768 176 768 160
WIRE 240 256 240 160
WIRE 256 256 240 256
WIRE 464 256 464 160
WIRE 464 256 336 256
WIRE -32 272 -32 160
WIRE 768 272 768 256
FLAG -32 272 0
FLAG 768 272 0
SYMBOL voltage 768 160 R0
WINDOW 123 0 0 Left 2
WINDOW 39 0 0 Left 2
SYMATTR InstName Vext
SYMATTR Value 0.5V
SYMBOL PVcellExt 96 160 R0
WINDOW 39 3 0 Bottom 2
SYMATTR SpiceLine E={E}
SYMATTR InstName PV1
SYMBOL PVcellExt 352 160 R0
WINDOW 39 3 0 Bottom 2
SYMATTR SpiceLine E=100
SYMATTR InstName PV2
SYMBOL PVcellExt 608 160 R0
WINDOW 39 3 0 Bottom 2
SYMATTR SpiceLine E={E}
SYMATTR InstName PV3
SYMBOL res 352 240 R90
WINDOW 0 0 56 VBottom 2
WINDOW 3 32 56 VTop 2
SYMATTR InstName R1
SYMATTR Value 1G
TEXT -40 328 Left 2 !.dc Vext 0 1.8 0.01V
TEXT -40 360 Left 2 ;.step param E list 1000 200
TEXT -40 -32 Left 2 ;Model of a PV Module of Three PV Cells \n(Kyocera LA441J59, Subcircuit PVcell.asc, PVcell.asy)\nValues from V. Quaschning: Understanding Renewable Energy Systems (2005), p. 132-135
TEXT -40 48 Left 1 ;(R. Becker, 2014-10-27)
TEXT -40 392 Left 2 !.param E 1000
