Version 4
SHEET 1 880 680
WIRE 256 32 64 32
WIRE 256 64 256 32
WIRE 64 128 64 32
WIRE 256 176 256 144
WIRE 64 304 64 208
WIRE 256 304 256 256
WIRE 256 304 64 304
WIRE 256 336 256 304
FLAG 256 336 0
SYMBOL res 240 160 R0
SYMATTR InstName R1
SYMATTR Value {R+1u}
SYMBOL res 240 48 R0
SYMATTR InstName R2
SYMATTR Value {1k-R+1u}
SYMBOL voltage 64 112 R0
WINDOW 123 0 0 Left 0
WINDOW 39 0 0 Left 0
SYMATTR InstName V1
SYMATTR Value 5V
TEXT 0 392 Left 2 !.step param R 0 1000 100
TEXT 2 420 Left 2 !.op
