Version 4
SHEET 1 880 680
WIRE 256 80 96 80
WIRE 400 80 256 80
WIRE 96 128 96 80
WIRE 256 128 256 80
WIRE 400 128 400 80
WIRE 96 240 96 208
WIRE 256 240 256 192
WIRE 256 240 96 240
WIRE 400 240 400 208
WIRE 400 240 256 240
WIRE 96 256 96 240
FLAG 96 256 0
SYMBOL current 96 208 R180
WINDOW 0 24 80 Left 2
WINDOW 3 24 0 Left 2
WINDOW 123 0 0 Left 0
WINDOW 39 0 0 Left 0
SYMATTR InstName I1
SYMATTR Value 1A
SYMBOL diode 240 128 R0
SYMATTR InstName D1
SYMBOL voltage 400 112 R0
WINDOW 123 0 0 Left 0
WINDOW 39 0 0 Left 0
SYMATTR InstName V1
SYMATTR Value 0.1V
TEXT 296 40 Left 2 !.dc V1 0V 1V 1mV
