Version 4
SHEET 1 880 680
WIRE 240 -16 -48 -16
WIRE 240 64 240 -16
WIRE -48 112 -48 -16
WIRE 240 176 240 144
WIRE 432 176 240 176
WIRE -48 288 -48 192
WIRE 240 288 240 240
FLAG 240 288 0
FLAG -48 288 0
FLAG 432 176 V_C1
IOPIN 432 176 Out
SYMBOL cap 224 176 R0
SYMATTR InstName C1
SYMATTR Value 10µF
SYMBOL res 224 48 R0
SYMATTR InstName R1
SYMATTR Value 100k
SYMBOL voltage -48 96 R0
WINDOW 3 -488 56 Left 2
WINDOW 123 0 0 Left 0
WINDOW 39 0 0 Left 0
SYMATTR Value PULSE(0V 5V 1s 1e-6s 1e-6s 5s 10s 1)
SYMATTR InstName V1
TEXT -536 192 Left 2 !.tran 0 11 0 .01
