Version 4
SHEET 1 880 680
WIRE 336 80 144 80
WIRE 144 144 144 80
WIRE 336 144 336 80
WIRE 144 288 144 224
WIRE 336 288 336 208
WIRE 336 288 144 288
WIRE 144 320 144 288
FLAG 144 320 0
SYMBOL voltage 144 128 R0
WINDOW 3 -18 240 Left 2
WINDOW 123 0 0 Left 0
WINDOW 39 0 0 Left 0
SYMATTR InstName V1
SYMATTR Value SINE(0V {V0} {f})
SYMBOL cap 320 144 R0
SYMATTR InstName C1
SYMATTR Value {C}
TEXT -272 352 Left 2 !.tran 0 10s 0s 0.1s
TEXT -272 136 Left 2 !.param f=1Hz
TEXT -272 176 Left 2 !.param omega=2*pi*f
TEXT -272 296 Left 2 !.meas TRAN A PARAM {A}
TEXT -272 216 Left 2 !.param A = omega*C*V0
TEXT -272 96 Left 2 !.param V0=1V
TEXT -272 56 Left 2 !.param C=1uF
