Version 4
SHEET 1 880 680
WIRE 256 -144 96 -144
WIRE 256 -96 256 -144
WIRE 96 -48 96 -144
WIRE 256 16 256 -16
WIRE 96 112 96 32
WIRE 256 112 256 80
WIRE 256 112 96 112
WIRE 96 144 96 112
FLAG 96 144 0
SYMBOL cap 240 16 R0
SYMATTR InstName C1
SYMATTR Value 1µF
SYMBOL res 240 -112 R0
SYMATTR InstName R1
SYMATTR Value 100k
SYMBOL voltage 96 -64 R0
WINDOW 3 -489 50 Left 2
WINDOW 123 0 0 Left 0
WINDOW 39 0 0 Left 0
SYMATTR InstName V1
SYMATTR Value PULSE(0V 5V 0s 1ns 1ns 0.8ms 1ms 500)
TEXT -280 56 Left 2 !.tran 0 500ms 0 0.01ms
